L24/1726519/Chaves.dss
! ==========================================================
! CHAVES — geradas de UNSEMT (Line com Switch=Y)
! ==========================================================
! 14 chave(s) omitida(s): os dois PACs fora da rede de MT deste alimentador, o que criaria ilha flutuante — ex.: 5196570, 5196678, 5196542
New Line.344740887 Phases=3 Bus1=node_538861361.1.2.3 Bus2=node_538861362.1.2.3 Switch=Y r1=1e-4 x1=1e-4 r0=1e-4 x0=1e-4 normamps=9999
New Line.353242197 Phases=1 Bus1=node_2182249634.2 Bus2=node_2182249635.2 Switch=Y r1=1e-4 x1=1e-4 r0=1e-4 x0=1e-4 normamps=9999
New Line.1827239242 Phases=3 Bus1=100_1827239320.1.2.3 Bus2=100_1827239321.1.2.3 Switch=Y r1=1e-4 x1=1e-4 r0=1e-4 x0=1e-4 normamps=9999
New Line.1940269729 Phases=1 Bus1=node_2257536307.3 Bus2=node_2257536306.3 Switch=Y r1=1e-4 x1=1e-4 r0=1e-4 x0=1e-4 normamps=9999
New Line.1939917748 Phases=3 Bus1=node_430737730.1.2.3 Bus2=node_2257205967.1.2.3 Switch=Y r1=1e-4 x1=1e-4 r0=1e-4 x0=1e-4 normamps=9999
New Line.2079872368 Phases=3 Bus1=node_2392222759.1.2.3 Bus2=node_2392222760.1.2.3 Switch=Y r1=1e-4 x1=1e-4 r0=1e-4 x0=1e-4 normamps=9999
New Line.353513129 Phases=1 Bus1=node_552612439.1 Bus2=node_552612440.1 Switch=Y r1=1e-4 x1=1e-4 r0=1e-4 x0=1e-4 normamps=9999
New Line.2071825078 Phases=1 Bus1=node_2384248423.1 Bus2=node_2384248422.1 Switch=Y r1=1e-4 x1=1e-4 r0=1e-4 x0=1e-4 normamps=9999
New Line.344408509 Phases=3 Bus1=node_538685526.1.2.3 Bus2=node_538685527.1.2.3 Switch=Y r1=1e-4 x1=1e-4 r0=1e-4 x0=1e-4 normamps=9999
New Line.344981558 Phases=1 Bus1=node_539122015.2 Bus2=node_539122016.2 Switch=Y r1=1e-4 x1=1e-4 r0=1e-4 x0=1e-4 normamps=9999
New Line.2224189072 Phases=1 Bus1=node_2495999520.3 Bus2=node_2495999521.3 Switch=Y r1=1e-4 x1=1e-4 r0=1e-4 x0=1e-4 normamps=9999
New Line.1962027367 Phases=3 Bus1=node_2279847805.1.2.3 Bus2=node_2279847806.1.2.3 Switch=Y r1=1e-4 x1=1e-4 r0=1e-4 x0=1e-4 normamps=9999
New Line.352781174 Phases=1 Bus1=node_551824133.2 Bus2=node_551824134.2 Switch=Y r1=1e-4 x1=1e-4 r0=1e-4 x0=1e-4 normamps=9999
New Line.2066290708 Phases=3 Bus1=node_438505691.1.2.3 Bus2=node_2379225545.1.2.3 Switch=Y r1=1e-4 x1=1e-4 r0=1e-4 x0=1e-4 normamps=9999
New Line.1423808869 Phases=1 Bus1=node_2796871181.2 Bus2=node_2796871191.2 Switch=Y r1=1e-4 x1=1e-4 r0=1e-4 x0=1e-4 normamps=9999
New Line.1367102320 Phases=1 Bus1=node_437865152.2 Bus2=node_1661834024.2 Switch=Y r1=1e-4 x1=1e-4 r0=1e-4 x0=1e-4 normamps=9999
New Line.1338830644 Phases=1 Bus1=node_1633575282.1 Bus2=node_1633575283.1 Switch=Y r1=1e-4 x1=1e-4 r0=1e-4 x0=1e-4 normamps=9999
New Line.1362907053 Phases=1 Bus1=node_1657514199.2 Bus2=node_1657514200.2 Switch=Y r1=1e-4 x1=1e-4 r0=1e-4 x0=1e-4 normamps=9999
New Line.344578186 Phases=1 Bus1=node_538719673.2 Bus2=node_538719674.2 Switch=Y r1=1e-4 x1=1e-4 r0=1e-4 x0=1e-4 normamps=9999
New Line.1434080092 Phases=1 Bus1=node_1730404793.1 Bus2=node_1730404794.1 Switch=Y r1=1e-4 x1=1e-4 r0=1e-4 x0=1e-4 normamps=9999
New Line.1435651809 Phases=1 Bus1=node_1731976589.3 Bus2=node_1731976590.3 Switch=Y r1=1e-4 x1=1e-4 r0=1e-4 x0=1e-4 normamps=9999
New Line.1450968391 Phases=1 Bus1=node_1791710218.2 Bus2=node_1791710219.2 Switch=Y r1=1e-4 x1=1e-4 r0=1e-4 x0=1e-4 normamps=9999
New Line.1449396806 Phases=1 Bus1=node_1745730099.2 Bus2=node_1745730100.2 Switch=Y r1=1e-4 x1=1e-4 r0=1e-4 x0=1e-4 normamps=9999
New Line.1435651952 Phases=1 Bus1=node_2555183697.3 Bus2=node_2812003241.3 Switch=Y r1=1e-4 x1=1e-4 r0=1e-4 x0=1e-4 normamps=9999
New Line.353867733 Phases=1 Bus1=100_353867747.2 Bus2=100_353867746.2 Switch=Y r1=1e-4 x1=1e-4 r0=1e-4 x0=1e-4 normamps=9999
New Line.1449396798 Phases=1 Bus1=node_1745730073.2 Bus2=node_1745730074.2 Switch=Y r1=1e-4 x1=1e-4 r0=1e-4 x0=1e-4 normamps=9999
New Line.1436528018 Phases=3 Bus1=node_1732835865.1.2.3 Bus2=node_1732835866.1.2.3 Switch=Y r1=1e-4 x1=1e-4 r0=1e-4 x0=1e-4 normamps=9999
New Line.1459423294 Phases=1 Bus1=node_1808671635.1 Bus2=node_1808671636.1 Switch=Y r1=1e-4 x1=1e-4 r0=1e-4 x0=1e-4 normamps=9999
New Line.353867881 Phases=1 Bus1=100_353867895.2 Bus2=100_353867894.2 Switch=Y r1=1e-4 x1=1e-4 r0=1e-4 x0=1e-4 normamps=9999
New Line.1422452233 Phases=1 Bus1=node_1719051898.1 Bus2=node_1719051899.1 Switch=Y r1=1e-4 x1=1e-4 r0=1e-4 x0=1e-4 normamps=9999
New Line.1435651782 Phases=1 Bus1=node_1731976544.3 Bus2=node_1731976545.3 Switch=Y r1=1e-4 x1=1e-4 r0=1e-4 x0=1e-4 normamps=9999
New Line.1524176799 Phases=1 Bus1=100_1524176818.2 Bus2=100_1524176819.2 Switch=Y r1=1e-4 x1=1e-4 r0=1e-4 x0=1e-4 normamps=9999
New Line.1549438399 Phases=1 Bus1=100_1549438418.2 Bus2=100_1549438419.2 Switch=Y r1=1e-4 x1=1e-4 r0=1e-4 x0=1e-4 normamps=9999
New Line.344408519 Phases=1 Bus1=100_1554453812.2 Bus2=100_1554453811.2 Switch=Y r1=1e-4 x1=1e-4 r0=1e-4 x0=1e-4 normamps=9999
New Line.345235256 Phases=1 Bus1=100_1576026875.2 Bus2=100_1576026876.2 Switch=Y r1=1e-4 x1=1e-4 r0=1e-4 x0=1e-4 normamps=9999
New Line.1550370389 Phases=1 Bus1=node_1869904509.2 Bus2=node_1869904510.2 Switch=Y r1=1e-4 x1=1e-4 r0=1e-4 x0=1e-4 normamps=9999
New Line.344821064 Phases=1 Bus1=node_1857910747.3 Bus2=node_1857910748.3 Switch=Y r1=1e-4 x1=1e-4 r0=1e-4 x0=1e-4 normamps=9999
New Line.345431065 Phases=1 Bus1=node_539381450.3 Bus2=node_539381451.3 Switch=Y r1=1e-4 x1=1e-4 r0=1e-4 x0=1e-4 normamps=9999
New Line.344918760 Phases=1 Bus1=100_1546355326.2 Bus2=100_1546355325.2 Switch=Y r1=1e-4 x1=1e-4 r0=1e-4 x0=1e-4 normamps=9999
New Line.345153408 Phases=3 Bus1=node_539279782.1.2.3 Bus2=node_539279783.1.2.3 Switch=Y r1=1e-4 x1=1e-4 r0=1e-4 x0=1e-4 normamps=9999
New Line.1546355334 Phases=1 Bus1=node_1865803289.2 Bus2=node_1865803290.2 Switch=Y r1=1e-4 x1=1e-4 r0=1e-4 x0=1e-4 normamps=9999
New Line.2616983085 Phases=1 Bus1=node_2771456018.2 Bus2=node_2771456019.2 Switch=Y r1=1e-4 x1=1e-4 r0=1e-4 x0=1e-4 normamps=9999
New Line.345431655 Phases=1 Bus1=100_1600433957.3 Bus2=100_1600433956.3 Switch=Y r1=1e-4 x1=1e-4 r0=1e-4 x0=1e-4 normamps=9999
New Line.1439361828 Phases=1 Bus1=node_1735648020.2 Bus2=node_1735648021.2 Switch=Y r1=1e-4 x1=1e-4 r0=1e-4 x0=1e-4 normamps=9999
New Line.345431160 Phases=1 Bus1=100_1560894934.1 Bus2=100_1560894930.1 Switch=Y r1=1e-4 x1=1e-4 r0=1e-4 x0=1e-4 normamps=9999
New Line.345237380 Phases=3 Bus1=node_1894947180.1.2.3 Bus2=node_1894947181.1.2.3 Switch=Y r1=1e-4 x1=1e-4 r0=1e-4 x0=1e-4 normamps=9999
New Line.672934372 Phases=1 Bus1=node_1718455870.3 Bus2=node_1718455871.3 Switch=Y r1=1e-4 x1=1e-4 r0=1e-4 x0=1e-4 normamps=9999
New Line.672934259 Phases=1 Bus1=node_1718454951.3 Bus2=node_1718454952.3 Switch=Y r1=1e-4 x1=1e-4 r0=1e-4 x0=1e-4 normamps=9999
New Line.1421782309 Phases=1 Bus1=node_1718455242.3 Bus2=node_1718455243.3 Switch=Y r1=1e-4 x1=1e-4 r0=1e-4 x0=1e-4 normamps=9999
New Line.1597269271 Phases=1 Bus1=node_1860341246.3 Bus2=node_1860341247.3 Switch=Y r1=1e-4 x1=1e-4 r0=1e-4 x0=1e-4 normamps=9999
New Line.1421782623 Phases=1 Bus1=node_1718456154.1 Bus2=node_1718456153.1 Switch=Y r1=1e-4 x1=1e-4 r0=1e-4 x0=1e-4 normamps=9999
New Line.1544135391 Phases=1 Bus1=node_1863695025.3 Bus2=node_1863695026.3 Switch=Y r1=1e-4 x1=1e-4 r0=1e-4 x0=1e-4 normamps=9999
New Line.1500353793 Phases=3 Bus1=node_1935371056.1.2.3 Bus2=node_1935371057.1.2.3 Switch=Y r1=1e-4 x1=1e-4 r0=1e-4 x0=1e-4 normamps=9999
New Line.1500353775 Phases=1 Bus1=node_1808658888.1 Bus2=node_1808658887.1 Switch=Y r1=1e-4 x1=1e-4 r0=1e-4 x0=1e-4 normamps=9999
New Line.1619533726 Phases=1 Bus1=node_1940330049.1 Bus2=node_1940330050.1 Switch=Y r1=1e-4 x1=1e-4 r0=1e-4 x0=1e-4 normamps=9999
New Line.353584792 Phases=3 Bus1=node_1393948538.1.2.3 Bus2=node_1393948539.1.2.3 Switch=Y r1=1e-4 x1=1e-4 r0=1e-4 x0=1e-4 normamps=9999
New Line.346639100 Phases=3 Bus1=node_541099754.1.2.3 Bus2=node_541099755.1.2.3 Switch=Y r1=1e-4 x1=1e-4 r0=1e-4 x0=1e-4 normamps=9999
New Line.346502657 Phases=3 Bus1=node_540773761.1.2.3 Bus2=node_540773762.1.2.3 Switch=Y r1=1e-4 x1=1e-4 r0=1e-4 x0=1e-4 normamps=9999
New Line.344578305 Phases=3 Bus1=node_2979786999.1.2.3 Bus2=node_2979787000.1.2.3 Switch=Y r1=1e-4 x1=1e-4 r0=1e-4 x0=1e-4 normamps=9999
New Line.345079471 Phases=1 Bus1=node_539194510.1 Bus2=node_539194511.1 Switch=Y r1=1e-4 x1=1e-4 r0=1e-4 x0=1e-4 normamps=9999
New Line.345431411 Phases=1 Bus1=node_2885050515.1 Bus2=node_2885050516.1 Switch=Y r1=1e-4 x1=1e-4 r0=1e-4 x0=1e-4 normamps=9999
New Line.344981759 Phases=3 Bus1=node_539122496.1.2.3 Bus2=node_539122497.1.2.3 Switch=Y r1=1e-4 x1=1e-4 r0=1e-4 x0=1e-4 normamps=9999
New Line.344875407 Phases=1 Bus1=node_539037513.3 Bus2=node_539037514.3 Switch=Y r1=1e-4 x1=1e-4 r0=1e-4 x0=1e-4 normamps=9999
New Line.344680308 Phases=1 Bus1=node_538761367.1 Bus2=node_538761368.1 Switch=Y r1=1e-4 x1=1e-4 r0=1e-4 x0=1e-4 normamps=9999
New Line.344743773 Phases=1 Bus1=node_538940812.2 Bus2=node_538940813.2 Switch=Y r1=1e-4 x1=1e-4 r0=1e-4 x0=1e-4 normamps=9999
New Line.345079477 Phases=1 Bus1=node_539194528.1 Bus2=node_539194529.1 Switch=Y r1=1e-4 x1=1e-4 r0=1e-4 x0=1e-4 normamps=9999
New Line.344680537 Phases=1 Bus1=node_538762018.1 Bus2=node_538762019.1 Switch=Y r1=1e-4 x1=1e-4 r0=1e-4 x0=1e-4 normamps=9999
New Line.345235390 Phases=1 Bus1=node_539306911.2 Bus2=node_539306912.2 Switch=Y r1=1e-4 x1=1e-4 r0=1e-4 x0=1e-4 normamps=9999
New Line.345080785 Phases=3 Bus1=node_539210552.1.2.3 Bus2=node_539210553.1.2.3 Switch=Y r1=1e-4 x1=1e-4 r0=1e-4 x0=1e-4 normamps=9999
New Line.345235164 Phases=1 Bus1=node_539306281.1 Bus2=node_539306282.1 Switch=Y r1=1e-4 x1=1e-4 r0=1e-4 x0=1e-4 normamps=9999
New Line.344875224 Phases=1 Bus1=node_539037010.1 Bus2=node_539037011.1 Switch=Y r1=1e-4 x1=1e-4 r0=1e-4 x0=1e-4 normamps=9999
New Line.345431225 Phases=1 Bus1=node_539381890.2 Bus2=node_539381891.2 Switch=Y r1=1e-4 x1=1e-4 r0=1e-4 x0=1e-4 normamps=9999
New Line.345079218 Phases=3 Bus1=node_539193811.1.2.3 Bus2=node_539193812.1.2.3 Switch=Y r1=1e-4 x1=1e-4 r0=1e-4 x0=1e-4 normamps=9999
New Line.345103826 Phases=1 Bus1=node_539253105.2 Bus2=node_539253106.2 Switch=Y r1=1e-4 x1=1e-4 r0=1e-4 x0=1e-4 normamps=9999
New Line.345235546 Phases=1 Bus1=node_539307351.1 Bus2=node_539307352.1 Switch=Y r1=1e-4 x1=1e-4 r0=1e-4 x0=1e-4 normamps=9999
New Line.345103610 Phases=1 Bus1=node_539252511.2 Bus2=node_539252512.2 Switch=Y r1=1e-4 x1=1e-4 r0=1e-4 x0=1e-4 normamps=9999
New Line.345431365 Phases=3 Bus1=node_539399462.1.2.3 Bus2=node_539399463.1.2.3 Switch=Y r1=1e-4 x1=1e-4 r0=1e-4 x0=1e-4 normamps=9999
New Line.346570762 Phases=3 Bus1=node_540923675.1.2.3 Bus2=node_540923676.1.2.3 Switch=Y r1=1e-4 x1=1e-4 r0=1e-4 x0=1e-4 normamps=9999
New Line.345152435 Phases=3 Bus1=node_539273652.1.2.3 Bus2=node_539273653.1.2.3 Switch=Y r1=1e-4 x1=1e-4 r0=1e-4 x0=1e-4 normamps=9999
New Line.344915615 Phases=3 Bus1=node_539063069.1.2.3 Bus2=node_539063070.1.2.3 Switch=Y r1=1e-4 x1=1e-4 r0=1e-4 x0=1e-4 normamps=9999
New Line.345103567 Phases=1 Bus1=node_539252394.1 Bus2=node_539252395.1 Switch=Y r1=1e-4 x1=1e-4 r0=1e-4 x0=1e-4 normamps=9999
New Line.344818037 Phases=3 Bus1=node_538943922.1.2.3 Bus2=node_538943921.1.2.3 Switch=Y r1=1e-4 x1=1e-4 r0=1e-4 x0=1e-4 normamps=9999
New Line.344680531 Phases=3 Bus1=node_2581162259.1.2.3 Bus2=node_2581162260.1.2.3 Switch=Y r1=1e-4 x1=1e-4 r0=1e-4 x0=1e-4 normamps=9999
New Line.344983596 Phases=3 Bus1=node_539135619.1.2.3 Bus2=node_539135618.1.2.3 Switch=Y r1=1e-4 x1=1e-4 r0=1e-4 x0=1e-4 normamps=9999
New Line.345103685 Phases=1 Bus1=node_539252694.1 Bus2=node_539252695.1 Switch=Y r1=1e-4 x1=1e-4 r0=1e-4 x0=1e-4 normamps=9999
New Line.345103709 Phases=1 Bus1=node_539252766.1 Bus2=node_539252767.1 Switch=Y r1=1e-4 x1=1e-4 r0=1e-4 x0=1e-4 normamps=9999
New Line.345152399 Phases=3 Bus1=node_539273580.1.2.3 Bus2=node_539273581.1.2.3 Switch=Y r1=1e-4 x1=1e-4 r0=1e-4 x0=1e-4 normamps=9999
New Line.344681834 Phases=3 Bus1=node_538812350.1.2.3 Bus2=node_538812351.1.2.3 Switch=Y r1=1e-4 x1=1e-4 r0=1e-4 x0=1e-4 normamps=9999
New Line.344819637 Phases=3 Bus1=node_538976875.1.2.3 Bus2=node_538976876.1.2.3 Switch=Y r1=1e-4 x1=1e-4 r0=1e-4 x0=1e-4 normamps=9999
New Line.345081726 Phases=3 Bus1=node_539212298.1.2.3 Bus2=node_539212299.1.2.3 Switch=Y r1=1e-4 x1=1e-4 r0=1e-4 x0=1e-4 normamps=9999
New Line.344743751 Phases=1 Bus1=node_538940758.3 Bus2=node_538940759.3 Switch=Y r1=1e-4 x1=1e-4 r0=1e-4 x0=1e-4 normamps=9999
New Line.344981876 Phases=3 Bus1=node_539122811.1.2.3 Bus2=node_539122812.1.2.3 Switch=Y r1=1e-4 x1=1e-4 r0=1e-4 x0=1e-4 normamps=9999
New Line.345431404 Phases=1 Bus1=node_539399556.1 Bus2=node_539399555.1 Switch=Y r1=1e-4 x1=1e-4 r0=1e-4 x0=1e-4 normamps=9999
New Line.345082518 Phases=3 Bus1=node_539213662.1.2.3 Bus2=node_539213663.1.2.3 Switch=Y r1=1e-4 x1=1e-4 r0=1e-4 x0=1e-4 normamps=9999
New Line.345153166 Phases=3 Bus1=node_539279301.1.2.3 Bus2=node_539279302.1.2.3 Switch=Y r1=1e-4 x1=1e-4 r0=1e-4 x0=1e-4 normamps=9999
New Line.344817776 Phases=3 Bus1=node_538943236.1.2.3 Bus2=node_538943237.1.2.3 Switch=Y r1=1e-4 x1=1e-4 r0=1e-4 x0=1e-4 normamps=9999
New Line.344876578 Phases=3 Bus1=node_539062034.1.2.3 Bus2=node_539062035.1.2.3 Switch=Y r1=1e-4 x1=1e-4 r0=1e-4 x0=1e-4 normamps=9999
New Line.345237440 Phases=3 Bus1=node_539333020.1.2.3 Bus2=node_539333021.1.2.3 Switch=Y r1=1e-4 x1=1e-4 r0=1e-4 x0=1e-4 normamps=9999
New Line.344818622 Phases=3 Bus1=node_538975070.1.2.3 Bus2=node_538975071.1.2.3 Switch=Y r1=1e-4 x1=1e-4 r0=1e-4 x0=1e-4 normamps=9999
New Line.345373145 Phases=1 Bus1=node_539355400.3 Bus2=node_539355401.3 Switch=Y r1=1e-4 x1=1e-4 r0=1e-4 x0=1e-4 normamps=9999
New Line.1759904524 Phases=1 Bus1=node_2085286743.1 Bus2=node_2085286744.1 Switch=Y r1=1e-4 x1=1e-4 r0=1e-4 x0=1e-4 normamps=9999
New Line.1757220753 Phases=1 Bus1=node_2082645873.1 Bus2=node_2082645874.1 Switch=Y r1=1e-4 x1=1e-4 r0=1e-4 x0=1e-4 normamps=9999
New Line.344916440 Phases=3 Bus1=node_539081807.1.2.3 Bus2=node_539081806.1.2.3 Switch=Y r1=1e-4 x1=1e-4 r0=1e-4 x0=1e-4 normamps=9999
New Line.344917894 Phases=3 Bus1=node_539084263.1.2.3 Bus2=node_539084264.1.2.3 Switch=Y r1=1e-4 x1=1e-4 r0=1e-4 x0=1e-4 normamps=9999
New Line.344683066 Phases=1 Bus1=node_538814700.2 Bus2=node_538814701.2 Switch=Y r1=1e-4 x1=1e-4 r0=1e-4 x0=1e-4 normamps=9999
New Line.344407566 Phases=1 Bus1=node_538683815.1 Bus2=node_538683816.1 Switch=Y r1=1e-4 x1=1e-4 r0=1e-4 x0=1e-4 normamps=9999
New Line.344818778 Phases=1 Bus1=node_538975344.1 Bus2=node_538975345.1 Switch=Y r1=1e-4 x1=1e-4 r0=1e-4 x0=1e-4 normamps=9999
New Line.344982729 Phases=1 Bus1=node_539133425.1 Bus2=node_539133426.1 Switch=Y r1=1e-4 x1=1e-4 r0=1e-4 x0=1e-4 normamps=9999
New Line.344408316 Phases=3 Bus1=node_538685175.1.2.3 Bus2=node_538685176.1.2.3 Switch=Y r1=1e-4 x1=1e-4 r0=1e-4 x0=1e-4 normamps=9999
New Line.344408483 Phases=3 Bus1=node_538685472.1.2.3 Bus2=node_538685473.1.2.3 Switch=Y r1=1e-4 x1=1e-4 r0=1e-4 x0=1e-4 normamps=9999
New Line.344818735 Phases=3 Bus1=node_538975269.1.2.3 Bus2=node_538975270.1.2.3 Switch=Y r1=1e-4 x1=1e-4 r0=1e-4 x0=1e-4 normamps=9999
New Line.344818747 Phases=3 Bus1=node_538975288.1.2.3 Bus2=node_538975287.1.2.3 Switch=Y r1=1e-4 x1=1e-4 r0=1e-4 x0=1e-4 normamps=9999
New Line.344681083 Phases=3 Bus1=node_538763173.1.2.3 Bus2=node_538763172.1.2.3 Switch=Y r1=1e-4 x1=1e-4 r0=1e-4 x0=1e-4 normamps=9999
New Line.345153207 Phases=3 Bus1=node_539279384.1.2.3 Bus2=node_539279385.1.2.3 Switch=Y r1=1e-4 x1=1e-4 r0=1e-4 x0=1e-4 normamps=9999
New Line.345371765 Phases=3 Bus1=node_539352301.1.2.3 Bus2=node_539352302.1.2.3 Switch=Y r1=1e-4 x1=1e-4 r0=1e-4 x0=1e-4 normamps=9999
New Line.345237408 Phases=3 Bus1=node_539332966.1.2.3 Bus2=node_539332967.1.2.3 Switch=Y r1=1e-4 x1=1e-4 r0=1e-4 x0=1e-4 normamps=9999
New Line.344915710 Phases=1 Bus1=node_539063247.2 Bus2=node_539063246.2 Switch=Y r1=1e-4 x1=1e-4 r0=1e-4 x0=1e-4 normamps=9999
New Line.344407613 Phases=3 Bus1=node_538683909.1.2.3 Bus2=node_538683908.1.2.3 Switch=Y r1=1e-4 x1=1e-4 r0=1e-4 x0=1e-4 normamps=9999
New Line.344915577 Phases=3 Bus1=node_539062991.1.2.3 Bus2=node_539062992.1.2.3 Switch=Y r1=1e-4 x1=1e-4 r0=1e-4 x0=1e-4 normamps=9999
New Line.345431086 Phases=1 Bus1=node_539381507.2 Bus2=node_539381508.2 Switch=Y r1=1e-4 x1=1e-4 r0=1e-4 x0=1e-4 normamps=9999
New Line.344743473 Phases=1 Bus1=node_538939984.2 Bus2=node_538939985.2 Switch=Y r1=1e-4 x1=1e-4 r0=1e-4 x0=1e-4 normamps=9999
New Line.344875293 Phases=1 Bus1=node_539037193.2 Bus2=node_539037194.2 Switch=Y r1=1e-4 x1=1e-4 r0=1e-4 x0=1e-4 normamps=9999
New Line.344577842 Phases=1 Bus1=node_538718931.2 Bus2=node_538718932.2 Switch=Y r1=1e-4 x1=1e-4 r0=1e-4 x0=1e-4 normamps=9999
New Line.345431417 Phases=1 Bus1=node_539399594.1 Bus2=node_539399595.1 Switch=Y r1=1e-4 x1=1e-4 r0=1e-4 x0=1e-4 normamps=9999
New Line.344743757 Phases=3 Bus1=node_538940776.1.2.3 Bus2=node_538940777.1.2.3 Switch=Y r1=1e-4 x1=1e-4 r0=1e-4 x0=1e-4 normamps=9999
New Line.344682010 Phases=3 Bus1=node_538812737.1.2.3 Bus2=node_538812736.1.2.3 Switch=Y r1=1e-4 x1=1e-4 r0=1e-4 x0=1e-4 normamps=9999
New Line.345236653 Phases=3 Bus1=node_539331554.1.2.3 Bus2=node_539331555.1.2.3 Switch=Y r1=1e-4 x1=1e-4 r0=1e-4 x0=1e-4 normamps=9999
New Line.344983657 Phases=3 Bus1=node_539135729.1.2.3 Bus2=node_539135730.1.2.3 Switch=Y r1=1e-4 x1=1e-4 r0=1e-4 x0=1e-4 normamps=9999
New Line.344681989 Phases=3 Bus1=node_538812697.1.2.3 Bus2=node_538812698.1.2.3 Switch=Y r1=1e-4 x1=1e-4 r0=1e-4 x0=1e-4 normamps=9999
New Line.353584649 Phases=3 Bus1=node_552730192.1.2.3 Bus2=node_552730193.1.2.3 Switch=Y r1=1e-4 x1=1e-4 r0=1e-4 x0=1e-4 normamps=9999
New Line.428519894 Phases=3 Bus1=100_428519902.1.2.3 Bus2=100_428519901.1.2.3 Switch=Y r1=1e-4 x1=1e-4 r0=1e-4 x0=1e-4 normamps=9999
New Line.345102950 Phases=1 Bus1=node_539250998.3 Bus2=node_539250999.3 Switch=Y r1=1e-4 x1=1e-4 r0=1e-4 x0=1e-4 normamps=9999
New Line.437984955 Phases=3 Bus1=node_706867913.1.2.3 Bus2=node_706867914.1.2.3 Switch=Y r1=1e-4 x1=1e-4 r0=1e-4 x0=1e-4 normamps=9999
New Line.344680936 Phases=3 Bus1=node_538762914.1.2.3 Bus2=node_538762915.1.2.3 Switch=Y r1=1e-4 x1=1e-4 r0=1e-4 x0=1e-4 normamps=9999
New Line.528252305 Phases=3 Bus1=100_528252317.1.2.3 Bus2=100_528252318.1.2.3 Switch=Y r1=1e-4 x1=1e-4 r0=1e-4 x0=1e-4 normamps=9999
New Line.512184068 Phases=1 Bus1=node_1046353368.2 Bus2=node_782315538.2 Switch=Y r1=1e-4 x1=1e-4 r0=1e-4 x0=1e-4 normamps=9999
New Line.536200402 Phases=1 Bus1=node_806228664.1 Bus2=node_806228665.1 Switch=Y r1=1e-4 x1=1e-4 r0=1e-4 x0=1e-4 normamps=9999
New Line.529695028 Phases=3 Bus1=100_529695033.1.2.3 Bus2=100_529695036.1.2.3 Switch=Y r1=1e-4 x1=1e-4 r0=1e-4 x0=1e-4 normamps=9999
New Line.434759034 Phases=1 Bus1=node_1193234205.1 Bus2=node_1193234206.1 Switch=Y r1=1e-4 x1=1e-4 r0=1e-4 x0=1e-4 normamps=9999
New Line.466362821 Phases=1 Bus1=node_736086234.1 Bus2=node_736086235.1 Switch=Y r1=1e-4 x1=1e-4 r0=1e-4 x0=1e-4 normamps=9999
New Line.1627520772 Phases=1 Bus1=node_2042548555.1 Bus2=node_2042548556.1 Switch=Y r1=1e-4 x1=1e-4 r0=1e-4 x0=1e-4 normamps=9999
New Line.2566034420 Phases=3 Bus1=100_2566034457.1.2.3 Bus2=100_2566034458.1.2.3 Switch=Y r1=1e-4 x1=1e-4 r0=1e-4 x0=1e-4 normamps=9999
New Line.2614912961 Phases=3 Bus1=100_2614912992.1.2.3 Bus2=100_2614912991.1.2.3 Switch=Y r1=1e-4 x1=1e-4 r0=1e-4 x0=1e-4 normamps=9999
New Line.2204514791 Phases=3 Bus1=node_2510119762.1.2.3 Bus2=node_2510119763.1.2.3 Switch=Y r1=1e-4 x1=1e-4 r0=1e-4 x0=1e-4 normamps=9999
New Line.344578225 Phases=3 Bus1=node_538719766.1.2.3 Bus2=node_538719767.1.2.3 Switch=Y r1=1e-4 x1=1e-4 r0=1e-4 x0=1e-4 normamps=9999
New Line.2204515685 Phases=3 Bus1=node_2510121996.1.2.3 Bus2=node_2515030144.1.2.3 Switch=Y r1=1e-4 x1=1e-4 r0=1e-4 x0=1e-4 normamps=9999
New Line.344407982 Phases=3 Bus1=node_538684601.1.2.3 Bus2=node_538684602.1.2.3 Switch=Y r1=1e-4 x1=1e-4 r0=1e-4 x0=1e-4 normamps=9999
New Line.2554132255 Phases=3 Bus1=node_438656006.1.2.3 Bus2=node_2892255278.1.2.3 Switch=Y r1=1e-4 x1=1e-4 r0=1e-4 x0=1e-4 normamps=9999
New Line.2595529860 Phases=3 Bus1=node_2748688349.1.2.3 Bus2=node_2748688350.1.2.3 Switch=Y r1=1e-4 x1=1e-4 r0=1e-4 x0=1e-4 normamps=9999
New Line.2630405641 Phases=3 Bus1=node_2787050763.1.2.3 Bus2=node_2787050762.1.2.3 Switch=Y r1=1e-4 x1=1e-4 r0=1e-4 x0=1e-4 normamps=9999
New Line.2614912954 Phases=3 Bus1=100_2614912992.1.2.3 Bus2=100_2614912991.1.2.3 Switch=Y r1=1e-4 x1=1e-4 r0=1e-4 x0=1e-4 normamps=9999
New Line.2644335426 Phases=3 Bus1=100_2644335457.1.2.3 Bus2=100_2644335456.1.2.3 Switch=Y r1=1e-4 x1=1e-4 r0=1e-4 x0=1e-4 normamps=9999
New Line.2204516190 Phases=3 Bus1=100_2204516231.1.2.3 Bus2=100_2204516232.1.2.3 Switch=Y r1=1e-4 x1=1e-4 r0=1e-4 x0=1e-4 normamps=9999
New Line.2204516197 Phases=3 Bus1=100_2204516231.1.2.3 Bus2=100_2204516232.1.2.3 Switch=Y r1=1e-4 x1=1e-4 r0=1e-4 x0=1e-4 normamps=9999
New Line.2204515278 Phases=1 Bus1=node_2510120670.2 Bus2=node_2510120671.2 Switch=Y r1=1e-4 x1=1e-4 r0=1e-4 x0=1e-4 normamps=9999
New Line.2644335419 Phases=3 Bus1=100_2644335457.1.2.3 Bus2=100_2644335456.1.2.3 Switch=Y r1=1e-4 x1=1e-4 r0=1e-4 x0=1e-4 normamps=9999
New Line.2255406405 Phases=1 Bus1=node_2558825107.1 Bus2=node_2558825108.1 Switch=Y r1=1e-4 x1=1e-4 r0=1e-4 x0=1e-4 normamps=9999
New Line.2358612617 Phases=1 Bus1=node_2744669548.3 Bus2=node_2744669549.3 Switch=Y r1=1e-4 x1=1e-4 r0=1e-4 x0=1e-4 normamps=9999
New Line.353915342 Phases=3 Bus1=segm_353915315.1.2.3 Bus2=100_353915314.1.2.3 Switch=Y r1=1e-4 x1=1e-4 r0=1e-4 x0=1e-4 normamps=9999
New Line.2612972759 Phases=1 Bus1=node_2766501230.1 Bus2=node_2766501231.1 Switch=Y r1=1e-4 x1=1e-4 r0=1e-4 x0=1e-4 normamps=9999
New Line.2204514642 Phases=1 Bus1=node_2510119369.2 Bus2=node_2510119368.2 Switch=Y r1=1e-4 x1=1e-4 r0=1e-4 x0=1e-4 normamps=9999
New Line.353332279 Phases=1 Bus1=node_552298893.3 Bus2=node_552298894.3 Switch=Y r1=1e-4 x1=1e-4 r0=1e-4 x0=1e-4 normamps=9999
New Line.353242501 Phases=1 Bus1=node_552271317.2 Bus2=node_552271318.2 Switch=Y r1=1e-4 x1=1e-4 r0=1e-4 x0=1e-4 normamps=9999
New Line.2573872157 Phases=3 Bus1=node_2725433374.1.2.3 Bus2=node_2725433375.1.2.3 Switch=Y r1=1e-4 x1=1e-4 r0=1e-4 x0=1e-4 normamps=9999
New Line.353242175 Phases=1 Bus1=node_552270447.2 Bus2=node_552270448.2 Switch=Y r1=1e-4 x1=1e-4 r0=1e-4 x0=1e-4 normamps=9999
New Line.2605630293 Phases=1 Bus1=node_2758802883.1 Bus2=node_2758802884.1 Switch=Y r1=1e-4 x1=1e-4 r0=1e-4 x0=1e-4 normamps=9999
New Line.2632531950 Phases=1 Bus1=node_2789961744.2 Bus2=node_2789961745.2 Switch=Y r1=1e-4 x1=1e-4 r0=1e-4 x0=1e-4 normamps=9999
New Line.344919357 Phases=3 Bus1=node_539096035.1.2.3 Bus2=node_539096036.1.2.3 Switch=Y r1=1e-4 x1=1e-4 r0=1e-4 x0=1e-4 normamps=9999
New Line.2505269930 Phases=1 Bus1=node_2662490526.1 Bus2=node_2662490527.1 Switch=Y r1=1e-4 x1=1e-4 r0=1e-4 x0=1e-4 normamps=9999
New Line.344682653 Phases=3 Bus1=node_2851364440.1.2.3 Bus2=node_429002123.1.2.3 Switch=Y r1=1e-4 x1=1e-4 r0=1e-4 x0=1e-4 normamps=9999
New Line.353242278 Phases=1 Bus1=node_552270732.3 Bus2=node_552270733.3 Switch=Y r1=1e-4 x1=1e-4 r0=1e-4 x0=1e-4 normamps=9999
New Line.353513106 Phases=1 Bus1=node_552612382.3 Bus2=node_552612383.3 Switch=Y r1=1e-4 x1=1e-4 r0=1e-4 x0=1e-4 normamps=9999
New Line.353088353 Phases=1 Bus1=node_552052138.3 Bus2=node_552052139.3 Switch=Y r1=1e-4 x1=1e-4 r0=1e-4 x0=1e-4 normamps=9999
New Line.353242438 Phases=1 Bus1=node_1290961784.2 Bus2=node_1290961785.2 Switch=Y r1=1e-4 x1=1e-4 r0=1e-4 x0=1e-4 normamps=9999
New Line.2646736411 Phases=3 Bus1=node_2809195859.1.2.3 Bus2=node_2809195860.1.2.3 Switch=Y r1=1e-4 x1=1e-4 r0=1e-4 x0=1e-4 normamps=9999
New Line.555338774 Phases=1 Bus1=node_1427759312.1 Bus2=node_1427759313.1 Switch=Y r1=1e-4 x1=1e-4 r0=1e-4 x0=1e-4 normamps=9999
New Line.599476782 Phases=1 Bus1=node_867619964.3 Bus2=node_867619965.3 Switch=Y r1=1e-4 x1=1e-4 r0=1e-4 x0=1e-4 normamps=9999
New Line.599305022 Phases=1 Bus1=node_867443914.1 Bus2=node_867443915.1 Switch=Y r1=1e-4 x1=1e-4 r0=1e-4 x0=1e-4 normamps=9999
New Line.344408499 Phases=3 Bus1=node_538685508.1.2.3 Bus2=node_538685509.1.2.3 Switch=Y r1=1e-4 x1=1e-4 r0=1e-4 x0=1e-4 normamps=9999
New Line.344817462 Phases=3 Bus1=node_538942431.1.2.3 Bus2=node_538942432.1.2.3 Switch=Y r1=1e-4 x1=1e-4 r0=1e-4 x0=1e-4 normamps=9999
New Line.344983025 Phases=3 Bus1=node_539134223.1.2.3 Bus2=node_539134224.1.2.3 Switch=Y r1=1e-4 x1=1e-4 r0=1e-4 x0=1e-4 normamps=9999
New Line.345370894 Phases=3 Bus1=node_539333629.1.2.3 Bus2=node_539333630.1.2.3 Switch=Y r1=1e-4 x1=1e-4 r0=1e-4 x0=1e-4 normamps=9999
New Line.344406970 Phases=3 Bus1=node_538506139.1.2.3 Bus2=node_538506140.1.2.3 Switch=Y r1=1e-4 x1=1e-4 r0=1e-4 x0=1e-4 normamps=9999
New Line.344817401 Phases=3 Bus1=node_538942278.1.2.3 Bus2=node_538942279.1.2.3 Switch=Y r1=1e-4 x1=1e-4 r0=1e-4 x0=1e-4 normamps=9999
New Line.344983452 Phases=1 Bus1=node_1396791431.2 Bus2=node_1396791432.2 Switch=Y r1=1e-4 x1=1e-4 r0=1e-4 x0=1e-4 normamps=9999
New Line.344917949 Phases=3 Bus1=node_539084350.1.2.3 Bus2=node_539084351.1.2.3 Switch=Y r1=1e-4 x1=1e-4 r0=1e-4 x0=1e-4 normamps=9999
New Line.344682706 Phases=1 Bus1=node_538814034.3 Bus2=node_538814035.3 Switch=Y r1=1e-4 x1=1e-4 r0=1e-4 x0=1e-4 normamps=9999
New Line.345081460 Phases=1 Bus1=node_539211807.3 Bus2=node_539211806.3 Switch=Y r1=1e-4 x1=1e-4 r0=1e-4 x0=1e-4 normamps=9999
New Line.344818768 Phases=3 Bus1=node_538975326.1.2.3 Bus2=node_538975327.1.2.3 Switch=Y r1=1e-4 x1=1e-4 r0=1e-4 x0=1e-4 normamps=9999
New Line.416260479 Phases=3 Bus1=100_416260500.1.2.3 Bus2=100_416260501.1.2.3 Switch=Y r1=1e-4 x1=1e-4 r0=1e-4 x0=1e-4 normamps=9999
New Line.353867588 Phases=3 Bus1=100_353867557.1.2.3 Bus2=100_353867578.1.2.3 Switch=Y r1=1e-4 x1=1e-4 r0=1e-4 x0=1e-4 normamps=9999
New Line.353867280 Phases=3 Bus1=100_353867270.1.2.3 Bus2=100_353867249.1.2.3 Switch=Y r1=1e-4 x1=1e-4 r0=1e-4 x0=1e-4 normamps=9999
New Line.353867148 Phases=3 Bus1=100_353867117.1.2.3 Bus2=100_353867138.1.2.3 Switch=Y r1=1e-4 x1=1e-4 r0=1e-4 x0=1e-4 normamps=9999
New Line.353867016 Phases=3 Bus1=100_353866985.1.2.3 Bus2=100_353867006.1.2.3 Switch=Y r1=1e-4 x1=1e-4 r0=1e-4 x0=1e-4 normamps=9999
New Line.353867104 Phases=3 Bus1=100_353867094.1.2.3 Bus2=100_353867073.1.2.3 Switch=Y r1=1e-4 x1=1e-4 r0=1e-4 x0=1e-4 normamps=9999
New Line.353867368 Phases=3 Bus1=100_353867337.1.2.3 Bus2=100_353867358.1.2.3 Switch=Y r1=1e-4 x1=1e-4 r0=1e-4 x0=1e-4 normamps=9999
New Line.345372315 Phases=1 Bus1=node_539353427.1 Bus2=node_539353428.1 Switch=Y r1=1e-4 x1=1e-4 r0=1e-4 x0=1e-4 normamps=9999
New Line.353335092 Phases=3 Bus1=node_552323593.1.2.3 Bus2=node_552323592.1.2.3 Switch=Y r1=1e-4 x1=1e-4 r0=1e-4 x0=1e-4 normamps=9999
New Line.344682556 Phases=3 Bus1=node_538813756.1.2.3 Bus2=node_538813757.1.2.3 Switch=Y r1=1e-4 x1=1e-4 r0=1e-4 x0=1e-4 normamps=9999
New Line.344916335 Phases=3 Bus1=node_1289978089.1.2.3 Bus2=node_1289978095.1.2.3 Switch=Y r1=1e-4 x1=1e-4 r0=1e-4 x0=1e-4 normamps=9999
...
